data/Network_10R-10/scenario_6/case.raw
 0,    100.00, 33, 0, 1, 60.00       / March 19, 2019 21:05:02; Simulator Version 20 (64 bit); BuildDate 2019_3_5


    1,'19155031900 ',  69.0000,3,   1,   1,   1,1.00000000, -10.810000, 1.10010, 0.84990, 1.10010, 0.84990
    2,'19193003600 ', 138.0000,2,   1,   1,   1,1.00000000, -19.116832, 1.10010, 0.89990, 1.10010, 0.89990
    3,'19115450100 ',  69.0000,2,   1,   1,   1,1.00000000, -25.718825, 1.10010, 0.84990, 1.10010, 0.84990
    4,'19179960200 ',  69.0000,2,   1,   1,   1,1.00000000, -28.433444, 1.10010, 0.84990, 1.10010, 0.84990
    5,'19193002102 ',  69.0000,2,   1,   1,   1,1.00000000, -18.764772, 1.10010, 0.84990, 1.10010, 0.84990
    6,'19113010600 ',  69.0000,2,   1,   1,   1,1.00000000, -15.595248, 1.10010, 0.84990, 1.10010, 0.84990
    7,'19033950700 ',  69.0000,2,   1,   1,   1,1.00000000, -18.810421, 1.10010, 0.84990, 1.10010, 0.84990
    8,'19153003902 ',  69.0000,2,   1,   1,   1,1.00000000, -26.895357, 1.10010, 0.84990, 1.10010, 0.84990
    9,'19005960100 ',  69.0000,2,   1,   1,   1,1.00000000, -24.761794, 1.10010, 0.84990, 1.10010, 0.84990
   10,'19131560100 ',  69.0000,2,   1,   1,   1,1.00000000, -26.699723, 1.10010, 0.84990, 1.10010, 0.84990
   11,'19139051000 ',  69.0000,2,   1,   1,   1,1.00000000, -28.264692, 1.10010, 0.84990, 1.10010, 0.84990
   12,'19013001501 ',  69.0000,2,   1,   1,   1,1.00000000, -31.898145, 1.10010, 0.84990, 1.10010, 0.84990
   13,'19151780300 ', 138.0000,2,   1,   1,   1,1.00000000, -29.030128, 1.10010, 0.89990, 1.10010, 0.89990
   14,'19113010700 ',  69.0000,2,   1,   1,   1,1.00000000, -29.137235, 1.10010, 0.84990, 1.10010, 0.84990
   15,'19113003002 ',  69.0000,2,   1,   1,   1,1.00000000, -30.586294, 1.10010, 0.84990, 1.10010, 0.84990
   16,'19197680400 ',  69.0000,2,   1,   1,   1,1.00000000, -25.218923, 1.10010, 0.84990, 1.10010, 0.84990
   17,'19045000200 ', 345.0000,2,   1,   1,   1,1.00000000, -26.117335, 1.10010, 0.89990, 1.10010, 0.89990
   18,'19057000700 ',  69.0000,2,   1,   1,   1,1.00000000, -36.325511, 1.10010, 0.84990, 1.10010, 0.84990
   19,'19081270100 ', 345.0000,2,   1,   1,   1,0.99452496, -25.281742, 1.10010, 0.89990, 1.10010, 0.89990
   20,'19069360200 ',  69.0000,2,   1,   1,   1,1.00000000, -29.707375, 1.10010, 0.84990, 1.10010, 0.84990
   21,'19127950500 ',  69.0000,2,   1,   1,   1,1.00000000, -27.368693, 1.10010, 0.84990, 1.10010, 0.84990
   22,'19021960600 ',  69.0000,2,   1,   1,   1,1.00000000, -22.557268, 1.10010, 0.84990, 1.10010, 0.84990
   23,'19009070300 ',  69.0000,2,   1,   1,   1,1.00000000, -21.417638, 1.10010, 0.84990, 1.10010, 0.84990
   24,'19045000300 ',  69.0000,2,   1,   1,   1,1.00000000, -27.359996, 1.10010, 0.84990, 1.10010, 0.84990
   25,'19153010802 ',  69.0000,2,   1,   1,   1,1.00000000, -33.654555, 1.10010, 0.84990, 1.10010, 0.84990
   26,'19001960100 ',  69.0000,2,   1,   1,   1,1.00000000, -21.852632, 1.10010, 0.84990, 1.10010, 0.84990
   27,'19195690100 ', 230.0000,2,   1,   1,   1,1.00000000, -18.912352, 1.10010, 0.89990, 1.10010, 0.89990
   28,'19153011702 ',  69.0000,2,   1,   1,   1,1.00000000, -35.026771, 1.10010, 0.84990, 1.10010, 0.84990
   29,'19155021502 ',  69.0000,2,   1,   1,   1,1.00000000, -17.051842, 1.10010, 0.84990, 1.10010, 0.84990
   30,'19027960300 ',  69.0000,2,   1,   1,   1,1.00000000, -24.108503, 1.10010, 0.84990, 1.10010, 0.84990
   31,'19081270300 ', 345.0000,2,   1,   1,   1,1.00240612, -24.151294, 1.10010, 0.89990, 1.10010, 0.89990
   32,'19127950200 ',  69.0000,2,   1,   1,   1,1.00000000, -35.749743, 1.10010, 0.84990, 1.10010, 0.84990
   33,'19169010500 ',  69.0000,2,   1,   1,   1,1.00000000, -35.615513, 1.10010, 0.84990, 1.10010, 0.84990
   34,'19163013702 ',  69.0000,2,   1,   1,   1,1.00000000, -31.493876, 1.10010, 0.84990, 1.10010, 0.84990
   35,'19153005100 ',  69.0000,2,   1,   1,   1,1.00000000, -29.053429, 1.10010, 0.84990, 1.10010, 0.84990
   36,'19111490900 ',  69.0000,2,   1,   1,   1,1.00000000, -40.622564, 1.10010, 0.84990, 1.10010, 0.84990
   37,'19127950900 ',  69.0000,2,   1,   1,   1,1.00000000, -27.207920, 1.10010, 0.84990, 1.10010, 0.84990
   38,'19035080400 ',  69.0000,2,   1,   1,   1,1.00000000, -18.871121, 1.10010, 0.84990, 1.10010, 0.84990
   39,'19169000900 ',  69.0000,2,   1,   1,   1,0.99883229, -39.395746, 1.10010, 0.84990, 1.10010, 0.84990
   40,'19059450200 ',  69.0000,2,   1,   1,   1,1.00000000, -12.507004, 1.10010, 0.84990, 1.10010, 0.84990
   41,'27105105500 ',  69.0000,2,   1,   1,   1,1.00000000, -12.562077, 1.10010, 0.84990, 1.10010, 0.84990
   42,'19089960300 ',  69.0000,2,   1,   1,   1,1.00000000, -31.826677, 1.10010, 0.84990, 1.10010, 0.84990
   43,'19047070100 ',  69.0000,2,   1,   1,   1,1.00000000, -24.860816, 1.10010, 0.84990, 1.10010, 0.84990
   44,'19081270200 ', 138.0000,2,   1,   1,   1,0.99545074, -24.251014, 1.10010, 0.89990, 1.10010, 0.89990
   45,'19033950102 ',  69.0000,2,   1,   1,   1,1.00000000, -21.633005, 1.10010, 0.84990, 1.10010, 0.84990
   46,'19175190400 ',  69.0000,2,   1,   1,   1,1.00000000, -27.038433, 1.10010, 0.84990, 1.10010, 0.84990
   47,'19113001900 ',  69.0000,2,   1,   1,   1,0.99405640, -27.588504, 1.10010, 0.84990, 1.10010, 0.84990
   48,'19041080300 ',  69.0000,2,   1,   1,   1,1.00000000, -19.030616, 1.10010, 0.84990, 1.10010, 0.84990
   49,'19021960200 ',  69.0000,2,   1,   1,   1,1.00000000, -18.768455, 1.10010, 0.84990, 1.10010, 0.84990
   50,'19195690300 ', 138.0000,2,   1,   1,   1,1.00000000, -20.841475, 1.10010, 0.89990, 1.10010, 0.89990
   51,'19195690200 ',  69.0000,2,   1,   1,   1,1.00000000, -22.442166, 1.10010, 0.84990, 1.10010, 0.84990
   52,'19057000600 ',  69.0000,2,   1,   1,   1,1.00000000, -36.612345, 1.10010, 0.84990, 1.10010, 0.84990
   53,'19057000300 ',  69.0000,2,   1,   1,   1,1.00000000, -36.775398, 1.10010, 0.84990, 1.10010, 0.84990
   54,'19169001000 ',  69.0000,2,   1,   1,   1,1.00000000, -39.720712, 1.10010, 0.84990, 1.10010, 0.84990
   55,'19067480400 ',  69.0000,2,   1,   1,   1,1.00000000, -28.106189, 1.10010, 0.84990, 1.10010, 0.84990
   56,'19103000200 ', 230.0000,2,   1,   1,   1,1.00000000, -29.333839, 1.10010, 0.89990, 1.10010, 0.89990
   57,'19061000100 ',  69.0000,2,   1,   1,   1,1.00222790, -32.068913, 1.10010, 0.84990, 1.10010, 0.84990
   58,'19189680200 ',  69.0000,2,   1,   1,   1,1.00000000, -19.102070, 1.10010, 0.84990, 1.10010, 0.84990
   59,'17161024103 ',  69.0000,2,   1,   1,   1,1.00000000, -29.935667, 1.10010, 0.84990, 1.10010, 0.84990
   60,'19007950300 ',  69.0000,2,   1,   1,   1,1.00000000, -33.101528, 1.10010, 0.84990, 1.10010, 0.84990
   61,'19181021000 ',  69.0000,2,   1,   1,   1,1.00000000, -35.479776, 1.10010, 0.84990, 1.10010, 0.84990
   62,'19111491000 ',  69.0000,2,   1,   1,   1,1.00000000, -40.777305, 1.10010, 0.84990, 1.10010, 0.84990
   63,'19143460200 ',  69.0000,2,   1,   1,   1,1.00000000, -12.444231, 1.10010, 0.84990, 1.10010, 0.84990
   64,'19157370300 ',  69.0000,2,   1,   1,   1,1.00000000, -41.654431, 1.10010, 0.84990, 1.10010, 0.84990
   65,'19169000800 ',  69.0000,2,   1,   1,   1,1.00000000, -39.863617, 1.10010, 0.84990, 1.10010, 0.84990
   66,'19059451100 ',  69.0000,2,   1,   1,   1,1.00000000, -13.354283, 1.10010, 0.84990, 1.10010, 0.84990
   67,'19013002303 ',  69.0000,2,   1,   1,   1,1.00000000, -31.859455, 1.10010, 0.84990, 1.10010, 0.84990
   68,'19033950900 ',  69.0000,2,   1,   1,   1,1.00000000, -19.041130, 1.10010, 0.84990, 1.10010, 0.84990
   69,'19135070100 ',  69.0000,2,   1,   1,   1,0.99190223, -33.083346, 1.10010, 0.84990, 1.10010, 0.84990
   70,'19067480500 ', 138.0000,2,   1,   1,   1,0.99591517, -26.926897, 1.10010, 0.89990, 1.10010, 0.89990
   71,'19111490800 ',  69.0000,2,   1,   1,   1,1.00000000, -41.097597, 1.10010, 0.84990, 1.10010, 0.84990
   72,'19033950800 ',  69.0000,2,   1,   1,   1,1.00000000, -20.066860, 1.10010, 0.84990, 1.10010, 0.84990
   73,'19125030200 ',  69.0000,2,   1,   1,   1,0.99868739, -37.062048, 1.10010, 0.84990, 1.10010, 0.84990
   74,'19087970300 ',  69.0000,2,   1,   1,   1,0.97283733, -43.953951, 1.10010, 0.84990, 1.10010, 0.84990
   75,'19041080200 ',  69.0000,2,   1,   1,   1,1.00000000, -20.197371, 1.10010, 0.84990, 1.10010, 0.84990
   76,'19113002200 ',  69.0000,2,   1,   1,   1,0.99463773, -27.859332, 1.10010, 0.84990, 1.10010, 0.84990
   77,'19189680300 ',  69.0000,2,   1,   1,   1,0.99023730, -23.605190, 1.10010, 0.84990, 1.10010, 0.84990
   78,'19079960300 ',  69.0000,2,   1,   1,   1,1.00000000, -37.503756, 1.10010, 0.84990, 1.10010, 0.84990
   79,'19147960400 ',  69.0000,2,   1,   1,   1,0.99559420, -24.751465, 1.10010, 0.84990, 1.10010, 0.84990
   80,'19145490200 ',  69.0000,2,   1,   1,   1,1.00000000, -17.547360, 1.10010, 0.84990, 1.10010, 0.84990
   81,'19189680100 ', 345.0000,2,   1,   1,   1,1.00337362, -24.467315, 1.10010, 0.89990, 1.10010, 0.89990
   82,'17141961700 ',  69.0000,2,   1,   1,   1,1.00000000, -18.364166, 1.10010, 0.84990, 1.10010, 0.84990
   83,'17197884004 ',  69.0000,2,   1,   1,   1,1.00000000, -11.912421, 1.10010, 0.84990, 1.10010, 0.84990
   84,'17099962500 ',  69.0000,2,   1,   1,   1,1.00000000, -11.413238, 1.10010, 0.84990, 1.10010, 0.84990
   85,'19045000800 ',  69.0000,2,   1,   1,   1,1.00000000, -21.440211, 1.10010, 0.84990, 1.10010, 0.84990
   86,'17063000700 ',  69.0000,2,   1,   1,   1,1.00000000, -21.039218, 1.10010, 0.84990, 1.10010, 0.84990
   87,'17157950700 ',  69.0000,2,   1,   1,   1,1.00000000, -23.327490, 1.10010, 0.84990, 1.10010, 0.84990
   88,'17179020900 ',  69.0000,2,   1,   1,   1,1.00000000, -28.834170, 1.10010, 0.84990, 1.10010, 0.84990
   89,'17197883307 ',  69.0000,2,   1,   1,   1,1.00000000, -29.761747, 1.10010, 0.84990, 1.10010, 0.84990
   90,'17197882900 ',  69.0000,2,   1,   1,   1,1.00000000, -39.420686, 1.10010, 0.84990, 1.10010, 0.84990
   91,'17021958200 ',  69.0000,2,   1,   1,   1,1.00000000, -18.119512, 1.10010, 0.84990, 1.10010, 0.84990
   92,'17043841604 ',  69.0000,2,   1,   1,   1,1.00000000, -44.242530, 1.10010, 0.84990, 1.10010, 0.84990
   93,'17197880502 ',  69.0000,2,   1,   1,   1,1.00000000, -40.107253, 1.10010, 0.84990, 1.10010, 0.84990
   94,'17197883212 ',  69.0000,2,   1,   1,   1,1.00000000, -39.681886, 1.10010, 0.84990, 1.10010, 0.84990
   95,'17079977500 ',  69.0000,2,   1,   1,   1,1.00000000, -16.958875, 1.10010, 0.84990, 1.10010, 0.84990
   96,'17039971500 ',  69.0000,2,   1,   1,   1,1.00000000, -25.396482, 1.10010, 0.84990, 1.10010, 0.84990
   97,'17127970200 ',  69.0000,2,   1,   1,   1,1.00000000, -23.316910, 1.10010, 0.84990, 1.10010, 0.84990
   98,'17135958000 ',  69.0000,2,   1,   1,   1,1.00000000, -21.701920, 1.10010, 0.84990, 1.10010, 0.84990
   99,'17103000200 ',  69.0000,2,   1,   1,   1,1.00000000, -27.239947, 1.10010, 0.84990, 1.10010, 0.84990
  100,'17179020800 ',  69.0000,2,   1,   1,   1,1.00000000, -30.134139, 1.10010, 0.84990, 1.10010, 0.84990
  101,'17197883606 ',  69.0000,2,   1,   1,   1,1.00000000, -42.935204, 1.10010, 0.84990, 1.10010, 0.84990
  102,'17049950200 ',  69.0000,2,   1,   1,   1,1.00000000, -21.614851, 1.10010, 0.84990, 1.10010, 0.84990
  103,'17197883509 ',  69.0000,2,   1,   1,   1,1.00000000, -37.350579, 1.10010, 0.84990, 1.10010, 0.84990
  104,'17147954500 ',  69.0000,2,   1,   1,   1,1.00000000, -30.730998, 1.10010, 0.84990, 1.10010, 0.84990
  105,'17097862200 ',  69.0000,2,   1,   1,   1,1.00000000, -57.447772, 1.10010, 0.84990, 1.10010, 0.84990
  106,'17077010300 ',  69.0000,2,   1,   1,   1,1.00000000, -28.252125, 1.10010, 0.84990, 1.10010, 0.84990
  107,'17167002500 ',  69.0000,2,   1,   1,   1,1.00000000, -30.869743, 1.10010, 0.84990, 1.10010, 0.84990
  108,'17161020100 ',  69.0000,2,   1,   1,   1,1.00000000, -24.553560, 1.10010, 0.84990, 1.10010, 0.84990
  109,'17031830500 ', 138.0000,2,   1,   1,   1,1.00000000, -54.409062, 1.10010, 0.89990, 1.10010, 0.89990
  110,'17097860101 ',  69.0000,2,   1,   1,   1,1.00000000, -54.803737, 1.10010, 0.84990, 1.10010, 0.84990
  111,'17119400700 ',  69.0000,2,   1,   1,   1,1.00000000, -29.273760, 1.10010, 0.84990, 1.10010, 0.84990
  112,'17031804507 ',  69.0000,2,   1,   1,   1,1.00000000, -47.934500, 1.10010, 0.84990, 1.10010, 0.84990
  113,'17119402400 ',  69.0000,2,   1,   1,   1,1.00000000, -29.868660, 1.10010, 0.84990, 1.10010, 0.84990
  114,'17125956500 ',  69.0000,2,   1,   1,   1,1.00000000, -30.687295, 1.10010, 0.84990, 1.10010, 0.84990
  115,'17035972600 ',  69.0000,2,   1,   1,   1,1.00000000, -22.345118, 1.10010, 0.84990, 1.10010, 0.84990
  116,'17025972000 ',  69.0000,2,   1,   1,   1,1.00000000, -25.283192, 1.10010, 0.84990, 1.10010, 0.84990
  117,'17057953700 ', 138.0000,2,   1,   1,   1,1.00000000, -30.470891, 1.10010, 0.89990, 1.10010, 0.89990
  118,'17089850400 ',  69.0000,2,   1,   1,   1,1.00000000, -48.821980, 1.10010, 0.84990, 1.10010, 0.84990
  119,'17031520200 ',  69.0000,2,   1,   1,   1,1.00000000, -51.315809, 1.10010, 0.84990, 1.10010, 0.84990
  120,'17145030200 ',  69.0000,2,   1,   1,   1,1.00000000, -26.525820, 1.10010, 0.84990, 1.10010, 0.84990
  121,'17031310500 ',  69.0000,1,   1,   1,   1,1.00209463, -56.423301, 1.10010, 0.84990, 1.10010, 0.84990
  122,'17197882601 ',  69.0000,2,   1,   1,   1,0.99913001, -40.403226, 1.10010, 0.84990, 1.10010, 0.84990
  123,'17197883811 ',  69.0000,2,   1,   1,   1,0.99486619, -44.326760, 1.10010, 0.84990, 1.10010, 0.84990
  124,'17197883602 ',  69.0000,2,   1,   1,   1,1.00000000, -43.526169, 1.10010, 0.84990, 1.10010, 0.84990
  125,'17115001000 ',  69.0000,2,   1,   1,   1,1.00000000, -37.378173, 1.10010, 0.84990, 1.10010, 0.84990
  126,'17201002200 ',  69.0000,2,   1,   1,   1,1.00000000, -36.748204, 1.10010, 0.84990, 1.10010, 0.84990
  127,'17031838800 ',  69.0000,2,   1,   1,   1,1.00251400, -49.870674, 1.10010, 0.84990, 1.10010, 0.84990
  128,'17011965200 ',  69.0000,2,   1,   1,   1,1.00000000, -33.090627, 1.10010, 0.84990, 1.10010, 0.84990
  129,'17127970100 ',  69.0000,2,   1,   1,   1,1.00000000, -26.309540, 1.10010, 0.84990, 1.10010, 0.84990
  130,'17105960200 ',  69.0000,2,   1,   1,   1,1.00000000, -26.680216, 1.10010, 0.84990, 1.10010, 0.84990
  131,'17031310400 ',  69.0000,1,   1,   1,   1,0.99396336, -56.595439, 1.10010, 0.84990, 1.10010, 0.84990
  132,'17199021400 ', 138.0000,1,   1,   1,   1,0.94275969, -34.448534, 1.10010, 0.89990, 1.10010, 0.89990
  133,'17121951700 ',  69.0000,2,   1,   1,   1,1.00000000, -22.682865, 1.10010, 0.84990, 1.10010, 0.84990
  134,'17053962000 ',  69.0000,2,   1,   1,   1,1.00000000, -28.125821, 1.10010, 0.84990, 1.10010, 0.84990
  135,'17125956400 ',  69.0000,2,   1,   1,   1,1.00000000, -27.713209, 1.10010, 0.84990, 1.10010, 0.84990
  136,'17037001800 ', 230.0000,2,   1,   1,   1,0.98869336, -40.215833, 1.10010, 0.89990, 1.10010, 0.89990
  137,'17099963700 ',  69.0000,2,   1,   1,   1,1.00000000, -25.175510, 1.10010, 0.84990, 1.10010, 0.84990
  138,'17063000600 ',  69.0000,2,   1,   1,   1,1.00000000, -17.738616, 1.10010, 0.84990, 1.10010, 0.84990
  139,'17113005101 ',  69.0000,2,   1,   1,   1,1.00000000, -33.307937, 1.10010, 0.84990, 1.10010, 0.84990
  140,'17113001105 ',  69.0000,2,   1,   1,   1,1.00000000, -33.031929, 1.10010, 0.84990, 1.10010, 0.84990
  141,'17183000900 ',  69.0000,2,   1,   1,   1,1.00000000, -37.901628, 1.10010, 0.84990, 1.10010, 0.84990
  142,'17183001300 ',  69.0000,2,   1,   1,   1,1.00000000, -33.238559, 1.10010, 0.84990, 1.10010, 0.84990
  143,'17063000103 ',  69.0000,2,   1,   1,   1,1.00000000, -27.138862, 1.10010, 0.84990, 1.10010, 0.84990
  144,'17201002100 ',  69.0000,2,   1,   1,   1,1.00000000, -36.734547, 1.10010, 0.84990, 1.10010, 0.84990
  145,'17119401500 ',  69.0000,2,   1,   1,   1,1.00000000, -29.672985, 1.10010, 0.84990, 1.10010, 0.84990
  146,'17199021300 ',  69.0000,2,   1,   1,   1,1.00000000, -33.270490, 1.10010, 0.84990, 1.10010, 0.84990
  147,'17123961300 ',  69.0000,2,   1,   1,   1,1.00000000,  -6.401964, 1.10010, 0.84990, 1.10010, 0.84990
  148,'17167000504 ',  69.0000,2,   1,   1,   1,1.00000000, -31.161266, 1.10010, 0.84990, 1.10010, 0.84990
  149,'17171970700 ',  69.0000,2,   1,   1,   1,1.00000000, -32.970539, 1.10010, 0.84990, 1.10010, 0.84990
  150,'17097861702 ',  69.0000,2,   1,   1,   1,1.00000000, -56.746414, 1.10010, 0.84990, 1.10010, 0.84990
  151,'17105960300 ', 230.0000,2,   1,   1,   1,1.00000000, -33.600429, 1.10010, 0.89990, 1.10010, 0.89990
  152,'17177000300 ',  69.0000,2,   1,   1,   1,1.00000000, -33.777656, 1.10010, 0.84990, 1.10010, 0.84990
  153,'17179022000 ',  69.0000,2,   1,   1,   1,1.00000000, -35.652747, 1.10010, 0.84990, 1.10010, 0.84990
  154,'17119400952 ',  69.0000,2,   1,   1,   1,1.00000000, -31.648668, 1.10010, 0.84990, 1.10010, 0.84990
  155,'17099961900 ',  69.0000,2,   1,   1,   1,1.00000000, -38.626441, 1.10010, 0.84990, 1.10010, 0.84990
  156,'17119400102 ', 138.0000,2,   1,   1,   1,0.99569494, -31.497356, 1.10010, 0.89990, 1.10010, 0.89990
  157,'17161024500 ',  69.0000,2,   1,   1,   1,0.99586505, -31.374604, 1.10010, 0.84990, 1.10010, 0.84990
  158,'17011965500 ',  69.0000,2,   1,   1,   1,1.00000000,  -6.672594, 1.10010, 0.84990, 1.10010, 0.84990
  159,'17051950500 ',  69.0000,2,   1,   1,   1,1.00000000, -24.861337, 1.10010, 0.84990, 1.10010, 0.84990
  160,'17099963400 ',  69.0000,2,   1,   1,   1,1.00000000, -32.339078, 1.10010, 0.84990, 1.10010, 0.84990
  161,'17115000200 ',  69.0000,2,   1,   1,   1,0.99548262, -36.686315, 1.10010, 0.84990, 1.10010, 0.84990
  162,'17019000500 ',  69.0000,2,   1,   1,   1,0.98454970, -40.184667, 1.10010, 0.84990, 1.10010, 0.84990
  163,'17011965400 ',  69.0000,2,   1,   1,   1,1.00000000, -35.480415, 1.10010, 0.84990, 1.10010, 0.84990
  164,'17103000900 ',  69.0000,2,   1,   1,   1,1.00000000, -38.845058, 1.10010, 0.84990, 1.10010, 0.84990
  165,'17143000500 ',  69.0000,2,   1,   1,   1,0.99168652, -35.116940, 1.10010, 0.84990, 1.10010, 0.84990
  166,'17031820400 ',  69.0000,2,   1,   1,   1,1.00000000, -54.884176, 1.10010, 0.84990, 1.10010, 0.84990
  167,'17011965000 ',  69.0000,2,   1,   1,   1,1.00000000, -32.880947, 1.10010, 0.84990, 1.10010, 0.84990
  168,'17119400600 ',  69.0000,2,   1,   1,   1,1.00000000, -29.260612, 1.10010, 0.84990, 1.10010, 0.84990
  169,'17031833300 ',  69.0000,2,   1,   1,   1,1.00000906, -56.903180, 1.10010, 0.84990, 1.10010, 0.84990
  170,'17019010100 ',  69.0000,2,   1,   1,   1,1.00000000, -37.501338, 1.10010, 0.84990, 1.10010, 0.84990
  171,'17099963300 ',  69.0000,2,   1,   1,   1,1.00000000, -33.047471, 1.10010, 0.84990, 1.10010, 0.84990
  172,'17089852500 ', 138.0000,2,   1,   1,   1,1.00000000, -47.757038, 1.10010, 0.89990, 1.10010, 0.89990
  173,'17167000503 ',  69.0000,2,   1,   1,   1,1.00000000, -32.006096, 1.10010, 0.84990, 1.10010, 0.84990
  174,'17019000402 ',  69.0000,2,   1,   1,   1,0.98110145, -40.182840, 1.10010, 0.84990, 1.10010, 0.84990
  175,'17073030300 ', 138.0000,2,   1,   1,   1,1.00000000, -32.336684, 1.10010, 0.89990, 1.10010, 0.89990
  176,'17149952800 ',  69.0000,2,   1,   1,   1,1.00302613, -34.079789, 1.10010, 0.84990, 1.10010, 0.84990
  177,'17031283800 ',  69.0000,2,   1,   1,   1,0.99493778, -56.742514, 1.10010, 0.84990, 1.10010, 0.84990
  178,'17043841320 ',  69.0000,2,   1,   1,   1,0.99293107, -50.035118, 1.10010, 0.84990, 1.10010, 0.84990
  179,'27141030404 ',  69.0000,2,   1,   1,   1,1.00000000, -10.322801, 1.10010, 0.84990, 1.10010, 0.84990
  180,'27049080200 ',  69.0000,2,   1,   1,   1,1.00000000, -19.908837, 1.10010, 0.84990, 1.10010, 0.84990
  181,'27061480900 ',  69.0000,2,   1,   1,   1,1.00000000,   1.501108, 1.10010, 0.84990, 1.10010, 0.84990
  182,'27171100203 ',  69.0000,2,   1,   1,   1,1.00000000, -11.171345, 1.10010, 0.84990, 1.10010, 0.84990
  183,'27123036000 ',  69.0000,2,   1,   1,   1,1.00000000, -33.960571, 1.10010, 0.84990, 1.10010, 0.84990
  184,'27163070801 ',  69.0000,2,   1,   1,   1,1.00000000, -29.033293, 1.10010, 0.84990, 1.10010, 0.84990
  185,'27053100500 ',  69.0000,1,   1,   1,   1,0.96266711, -37.650137, 1.10010, 0.84990, 1.10010, 0.84990
  186,'27165950300 ',  69.0000,2,   1,   1,   1,1.00000000, -19.763366, 1.10010, 0.84990, 1.10010, 0.84990
  187,'27103480600 ',  69.0000,2,   1,   1,   1,1.00000000, -24.842523, 1.10010, 0.84990, 1.10010, 0.84990
  188,'27099001200 ',  69.0000,2,   1,   1,   1,1.00000000, -24.865696, 1.10010, 0.84990, 1.10010, 0.84990
  189,'27049080600 ',  69.0000,2,   1,   1,   1,1.00000000, -27.676434, 1.10010, 0.84990, 1.10010, 0.84990
  190,'27131070901 ',  69.0000,2,   1,   1,   1,1.00000000, -27.327068, 1.10010, 0.84990, 1.10010, 0.84990
  191,'27139080301 ',  69.0000,2,   1,   1,   1,1.00000000, -31.134348, 1.10010, 0.84990, 1.10010, 0.84990
  192,'27053025301 ',  69.0000,2,   1,   1,   1,0.99201715, -31.842721, 1.10010, 0.84990, 1.10010, 0.84990
  193,'27163071209 ',  69.0000,2,   1,   1,   1,1.00000000, -31.260919, 1.10010, 0.84990, 1.10010, 0.84990
  194,'27037060508 ',  69.0000,2,   1,   1,   1,1.00000000, -28.976494, 1.10010, 0.84990, 1.10010, 0.84990
  195,'27037060748 ',  69.0000,2,   1,   1,   1,1.00000000, -32.747923, 1.10010, 0.84990, 1.10010, 0.84990
  196,'27075370100 ',  69.0000,2,   1,   1,   1,1.00000000, -22.120973, 1.10010, 0.84990, 1.10010, 0.84990
  197,'27053026018 ',  69.0000,2,   1,   1,   1,1.00000000, -33.016807, 1.10010, 0.84990, 1.10010, 0.84990
  198,'27101900200 ',  69.0000,2,   1,   1,   1,1.00000000, -15.112039, 1.10010, 0.84990, 1.10010, 0.84990
  199,'27105105100 ',  69.0000,2,   1,   1,   1,1.00000000, -13.757978, 1.10010, 0.84990, 1.10010, 0.84990
  200,'27141030503 ',  69.0000,2,   1,   1,   1,1.00000000, -22.527477, 1.10010, 0.84990, 1.10010, 0.84990
...
0 / END OF BUS DATA, BEGIN LOAD DATA
    1,'1 ',1,   1,   1,    14.190,     3.890,     0.000,     0.000,     0.000,     0.000,   1,1, 0
    2,'1 ',1,   1,   1,    46.340,     4.270,     0.000,     0.000,     0.000,     0.000,   1,1, 0
    3,'1 ',1,   1,   1,     2.510,     0.890,     0.000,     0.000,     0.000,     0.000,   1,1, 0
    4,'1 ',1,   1,   1,     2.010,     0.800,     0.000,     0.000,     0.000,     0.000,   1,1, 0
    5,'1 ',1,   1,   1,     8.050,     2.080,     0.000,     0.000,     0.000,     0.000,   1,1, 0
    6,'1 ',1,   1,   1,     4.910,     2.000,     0.000,     0.000,     0.000,     0.000,   1,1, 0
    7,'1 ',1,   1,   1,     9.460,     2.440,     0.000,     0.000,     0.000,     0.000,   1,1, 0
    8,'1 ',1,   1,   1,     3.350,     1.370,     0.000,     0.000,     0.000,     0.000,   1,1, 0
    9,'1 ',1,   1,   1,     2.660,     0.890,     0.000,     0.000,     0.000,     0.000,   1,1, 0
   10,'1 ',1,   1,   1,     5.220,     1.560,     0.000,     0.000,     0.000,     0.000,   1,1, 0
   11,'1 ',1,   1,   1,    25.680,     5.110,     0.000,     0.000,     0.000,     0.000,   1,1, 0
   12,'1 ',1,   1,   1,     2.480,     0.900,     0.000,     0.000,     0.000,     0.000,   1,1, 0
   13,'1 ',1,   1,   1,     3.730,     1.030,     0.000,     0.000,     0.000,     0.000,   1,1, 0
   14,'1 ',1,   1,   1,     9.800,     2.960,     0.000,     0.000,     0.000,     0.000,   1,1, 0
   15,'1 ',1,   1,   1,    75.250,     9.610,     0.000,     0.000,     0.000,     0.000,   1,1, 0
   16,'1 ',1,   1,   1,     1.440,     0.450,     0.000,     0.000,     0.000,     0.000,   1,1, 0
   17,'1 ',1,   1,   1,    36.250,     7.620,     0.000,     0.000,     0.000,     0.000,   1,1, 0
   18,'1 ',1,   1,   1,     4.850,     1.170,     0.000,     0.000,     0.000,     0.000,   1,1, 0
   19,'1 ',1,   1,   1,   100.000,    90.000,     0.000,     0.000,     0.000,     0.000,   1,1, 0
   20,'1 ',1,   1,   1,    21.760,     3.200,     0.000,     0.000,     0.000,     0.000,   1,1, 0
   21,'1 ',1,   1,   1,    14.230,     3.160,     0.000,     0.000,     0.000,     0.000,   1,1, 0
   22,'1 ',1,   1,   1,     5.050,     1.640,     0.000,     0.000,     0.000,     0.000,   1,1, 0
   23,'1 ',1,   1,   1,     1.360,     0.450,     0.000,     0.000,     0.000,     0.000,   1,1, 0
   24,'1 ',1,   1,   1,     3.180,     1.310,     0.000,     0.000,     0.000,     0.000,   1,1, 0
   25,'1 ',1,   1,   1,    10.780,     2.460,     0.000,     0.000,     0.000,     0.000,   1,1, 0
   26,'1 ',1,   1,   1,     4.700,     1.490,     0.000,     0.000,     0.000,     0.000,   1,1, 0
   27,'1 ',1,   1,   1,     9.240,     1.760,     0.000,     0.000,     0.000,     0.000,   1,1, 0
   28,'1 ',1,   1,   1,     9.280,     2.100,     0.000,     0.000,     0.000,     0.000,   1,1, 0
   29,'1 ',1,   1,   1,     3.380,     1.070,     0.000,     0.000,     0.000,     0.000,   1,1, 0
   30,'1 ',1,   1,   1,     4.940,     1.770,     0.000,     0.000,     0.000,     0.000,   1,1, 0
   31,'1 ',1,   1,   1,     7.620,     1.290,     0.000,     0.000,     0.000,     0.000,   1,1, 0
   32,'1 ',1,   1,   1,     3.000,     1.070,     0.000,     0.000,     0.000,     0.000,   1,1, 0
   33,'1 ',1,   1,   1,     1.870,     0.600,     0.000,     0.000,     0.000,     0.000,   1,1, 0
   34,'1 ',1,   1,   1,    42.650,     8.230,     0.000,     0.000,     0.000,     0.000,   1,1, 0
   35,'1 ',1,   1,   1,    38.070,     9.070,     0.000,     0.000,     0.000,     0.000,   1,1, 0
   36,'1 ',1,   1,   1,     1.680,     0.680,     0.000,     0.000,     0.000,     0.000,   1,1, 0
   37,'1 ',1,   1,   1,    12.940,     2.090,     0.000,     0.000,     0.000,     0.000,   1,1, 0
   38,'1 ',1,   1,   1,     6.790,     1.750,     0.000,     0.000,     0.000,     0.000,   1,1, 0
   39,'1 ',1,   1,   1,     7.790,     1.830,     0.000,     0.000,     0.000,     0.000,   1,1, 0
   40,'1 ',1,   1,   1,     6.250,     1.800,     0.000,     0.000,     0.000,     0.000,   1,1, 0
   41,'1 ',1,   1,   1,     7.590,     1.690,     0.000,     0.000,     0.000,     0.000,   1,1, 0
   42,'1 ',1,   1,   1,     7.580,     1.540,     0.000,     0.000,     0.000,     0.000,   1,1, 0
   43,'1 ',1,   1,   1,     1.290,     0.530,     0.000,     0.000,     0.000,     0.000,   1,1, 0
   44,'1 ',1,   1,   1,     9.900,     2.440,     0.000,     0.000,     0.000,     0.000,   1,1, 0
   45,'1 ',1,   1,   1,     6.040,     1.790,     0.000,     0.000,     0.000,     0.000,   1,1, 0
   46,'1 ',1,   1,   1,     3.340,     0.990,     0.000,     0.000,     0.000,     0.000,   1,1, 0
   47,'1 ',1,   1,   1,    16.960,     4.230,     0.000,     0.000,     0.000,     0.000,   1,1, 0
   48,'1 ',1,   1,   1,    10.660,     2.730,     0.000,     0.000,     0.000,     0.000,   1,1, 0
   49,'1 ',1,   1,   1,     2.400,     0.570,     0.000,     0.000,     0.000,     0.000,   1,1, 0
   50,'1 ',1,   1,   1,     8.050,     2.300,     0.000,     0.000,     0.000,     0.000,   1,1, 0
   51,'1 ',1,   1,   1,     9.710,     2.060,     0.000,     0.000,     0.000,     0.000,   1,1, 0
   52,'1 ',1,   1,   1,     2.460,     1.010,     0.000,     0.000,     0.000,     0.000,   1,1, 0
   53,'1 ',1,   1,   1,    13.570,     2.540,     0.000,     0.000,     0.000,     0.000,   1,1, 0
   54,'1 ',1,   1,   1,    22.800,     5.650,     0.000,     0.000,     0.000,     0.000,   1,1, 0
   55,'1 ',1,   1,   1,     3.620,     1.030,     0.000,     0.000,     0.000,     0.000,   1,1, 0
   56,'1 ',1,   1,   1,     7.540,     2.330,     0.000,     0.000,     0.000,     0.000,   1,1, 0
   57,'1 ',1,   1,   1,    37.320,     7.580,     0.000,     0.000,     0.000,     0.000,   1,1, 0
   58,'1 ',1,   1,   1,     3.390,     1.010,     0.000,     0.000,     0.000,     0.000,   1,1, 0
   59,'1 ',1,   1,   1,    10.620,     3.420,     0.000,     0.000,     0.000,     0.000,   1,1, 0
   60,'1 ',1,   1,   1,     5.420,     1.600,     0.000,     0.000,     0.000,     0.000,   1,1, 0
   61,'1 ',1,   1,   1,     3.910,     1.160,     0.000,     0.000,     0.000,     0.000,   1,1, 0
   62,'1 ',1,   1,   1,     1.440,     0.530,     0.000,     0.000,     0.000,     0.000,   1,1, 0
   63,'1 ',1,   1,   1,    15.080,     2.350,     0.000,     0.000,     0.000,     0.000,   1,1, 0
   64,'1 ',1,   1,   1,     4.300,     1.310,     0.000,     0.000,     0.000,     0.000,   1,1, 0
   65,'1 ',1,   1,   1,    10.840,     3.550,     0.000,     0.000,     0.000,     0.000,   1,1, 0
   66,'1 ',1,   1,   1,     3.680,     1.080,     0.000,     0.000,     0.000,     0.000,   1,1, 0
   67,'1 ',1,   1,   1,     3.020,     1.290,     0.000,     0.000,     0.000,     0.000,   1,1, 0
   68,'1 ',1,   1,   1,     1.630,     0.520,     0.000,     0.000,     0.000,     0.000,   1,1, 0
   69,'1 ',1,   1,   1,    50.960,    10.270,     0.000,     0.000,     0.000,     0.000,   1,1, 0
   70,'1 ',1,   1,   1,    37.500,     4.030,     0.000,     0.000,     0.000,     0.000,   1,1, 0
   71,'1 ',1,   1,   1,    27.900,     3.390,     0.000,     0.000,     0.000,     0.000,   1,1, 0
   72,'1 ',1,   1,   1,     3.880,     1.250,     0.000,     0.000,     0.000,     0.000,   1,1, 0
   73,'1 ',1,   1,   1,    16.030,     4.080,     0.000,     0.000,     0.000,     0.000,   1,1, 0
   74,'1 ',1,   1,   1,    12.530,     2.490,     0.000,     0.000,     0.000,     0.000,   1,1, 0
   75,'1 ',1,   1,   1,     5.990,     1.910,     0.000,     0.000,     0.000,     0.000,   1,1, 0
   76,'1 ',1,   1,   1,     6.200,     1.590,     0.000,     0.000,     0.000,     0.000,   1,1, 0
   77,'1 ',1,   1,   1,    13.640,     3.150,     0.000,     0.000,     0.000,     0.000,   1,1, 0
   78,'1 ',1,   1,   1,     8.360,     1.370,     0.000,     0.000,     0.000,     0.000,   1,1, 0
   79,'1 ',1,   1,   1,     1.900,     0.710,     0.000,     0.000,     0.000,     0.000,   1,1, 0
   80,'1 ',1,   1,   1,     6.330,     1.590,     0.000,     0.000,     0.000,     0.000,   1,1, 0
   81,'1 ',1,   1,   1,    13.310,     2.760,     0.000,     0.000,     0.000,     0.000,   1,1, 0
   82,'1 ',1,   1,   1,     9.750,     2.110,     0.000,     0.000,     0.000,     0.000,   1,1, 0
   83,'1 ',1,   1,   1,     3.360,     0.920,     0.000,     0.000,     0.000,     0.000,   1,1, 0
   84,'1 ',1,   1,   1,     6.570,     1.540,     0.000,     0.000,     0.000,     0.000,   1,1, 0
   85,'1 ',1,   1,   1,    58.880,    11.710,     0.000,     0.000,     0.000,     0.000,   1,1, 0
   86,'1 ',1,   1,   1,    20.350,     4.010,     0.000,     0.000,     0.000,     0.000,   1,1, 0
   87,'1 ',1,   1,   1,     5.810,     1.560,     0.000,     0.000,     0.000,     0.000,   1,1, 0
   88,'1 ',1,   1,   1,    28.630,     3.680,     0.000,     0.000,     0.000,     0.000,   1,1, 0
   89,'1 ',1,   1,   1,    10.190,     2.660,     0.000,     0.000,     0.000,     0.000,   1,1, 0
   90,'1 ',1,   1,   1,    30.890,     5.540,     0.000,     0.000,     0.000,     0.000,   1,1, 0
   91,'1 ',1,   1,   1,    10.470,     2.750,     0.000,     0.000,     0.000,     0.000,   1,1, 0
   92,'1 ',1,   1,   1,     3.400,     1.300,     0.000,     0.000,     0.000,     0.000,   1,1, 0
   93,'1 ',1,   1,   1,    17.060,     5.530,     0.000,     0.000,     0.000,     0.000,   1,1, 0
   94,'1 ',1,   1,   1,     3.500,     1.410,     0.000,     0.000,     0.000,     0.000,   1,1, 0
   95,'1 ',1,   1,   1,    19.900,     5.870,     0.000,     0.000,     0.000,     0.000,   1,1, 0
   96,'1 ',1,   1,   1,    19.170,     4.000,     0.000,     0.000,     0.000,     0.000,   1,1, 0
   97,'1 ',1,   1,   1,     5.280,     1.890,     0.000,     0.000,     0.000,     0.000,   1,1, 0
   98,'1 ',1,   1,   1,     8.400,     2.490,     0.000,     0.000,     0.000,     0.000,   1,1, 0
   99,'1 ',1,   1,   1,    13.360,     2.850,     0.000,     0.000,     0.000,     0.000,   1,1, 0
  100,'1 ',1,   1,   1,     7.360,     2.060,     0.000,     0.000,     0.000,     0.000,   1,1, 0
  101,'1 ',1,   1,   1,     8.080,     1.910,     0.000,     0.000,     0.000,     0.000,   1,1, 0
  102,'1 ',1,   1,   1,     7.080,     2.250,     0.000,     0.000,     0.000,     0.000,   1,1, 0
  103,'1 ',1,   1,   1,     9.250,     2.890,     0.000,     0.000,     0.000,     0.000,   1,1, 0
  104,'1 ',1,   1,   1,    12.620,     3.040,     0.000,     0.000,     0.000,     0.000,   1,1, 0
  105,'1 ',1,   1,   1,    19.540,     3.450,     0.000,     0.000,     0.000,     0.000,   1,1, 0
  106,'1 ',1,   1,   1,     7.990,     2.230,     0.000,     0.000,     0.000,     0.000,   1,1, 0
  107,'1 ',1,   1,   1,     5.620,     1.780,     0.000,     0.000,     0.000,     0.000,   1,1, 0
  108,'1 ',1,   1,   1,    48.800,     7.180,     0.000,     0.000,     0.000,     0.000,   1,1, 0
  109,'1 ',1,   1,   1,    24.800,     6.320,     0.000,     0.000,     0.000,     0.000,   1,1, 0
  110,'1 ',1,   1,   1,    26.070,     6.790,     0.000,     0.000,     0.000,     0.000,   1,1, 0
  111,'1 ',1,   1,   1,    11.520,     2.120,     0.000,     0.000,     0.000,     0.000,   1,1, 0
  112,'1 ',1,   1,   1,    37.430,     9.140,     0.000,     0.000,     0.000,     0.000,   1,1, 0
  113,'1 ',1,   1,   1,     5.630,     1.530,     0.000,     0.000,     0.000,     0.000,   1,1, 0
  114,'1 ',1,   1,   1,    19.550,     5.730,     0.000,     0.000,     0.000,     0.000,   1,1, 0
  115,'1 ',1,   1,   1,     8.690,     2.210,     0.000,     0.000,     0.000,     0.000,   1,1, 0
  116,'1 ',1,   1,   1,    10.460,     3.240,     0.000,     0.000,     0.000,     0.000,   1,1, 0
  117,'1 ',1,   1,   1,     8.850,     1.880,     0.000,     0.000,     0.000,     0.000,   1,1, 0
  118,'1 ',1,   1,   1,    10.390,     2.980,     0.000,     0.000,     0.000,     0.000,   1,1, 0
  119,'1 ',1,   1,   1,     4.910,     1.630,     0.000,     0.000,     0.000,     0.000,   1,1, 0
  120,'1 ',1,   1,   1,    15.610,     4.560,     0.000,     0.000,     0.000,     0.000,   1,1, 0
  121,'1 ',1,   1,   1,     1.260,     0.430,     0.000,     0.000,     0.000,     0.000,   1,1, 0
  122,'1 ',1,   1,   1,     1.950,     0.860,     0.000,     0.000,     0.000,     0.000,   1,1, 0
  123,'1 ',1,   1,   1,     3.190,     1.000,     0.000,     0.000,     0.000,     0.000,   1,1, 0
  124,'1 ',1,   1,   1,    37.540,    10.000,     0.000,     0.000,     0.000,     0.000,   1,1, 0
  125,'1 ',1,   1,   1,     7.330,     0.930,     0.000,     0.000,     0.000,     0.000,   1,1, 0
  126,'1 ',1,   1,   1,    13.700,     2.440,     0.000,     0.000,     0.000,     0.000,   1,1, 0
  127,'1 ',1,   1,   1,   110.220,    22.480,     0.000,     0.000,     0.000,     0.000,   1,1, 0
  128,'1 ',1,   1,   1,    10.980,     2.730,     0.000,     0.000,     0.000,     0.000,   1,1, 0
  129,'1 ',1,   1,   1,    26.800,     3.590,     0.000,     0.000,     0.000,     0.000,   1,1, 0
  130,'1 ',1,   1,   1,    26.820,     6.990,     0.000,     0.000,     0.000,     0.000,   1,1, 0
  131,'1 ',1,   1,   1,     1.490,     0.560,     0.000,     0.000,     0.000,     0.000,   1,1, 0
  132,'1 ',1,   1,   1,    23.080,     3.890,     0.000,     0.000,     0.000,     0.000,   1,1, 0
  133,'1 ',1,   1,   1,    30.650,     9.380,     0.000,     0.000,     0.000,     0.000,   1,1, 0
  134,'1 ',1,   1,   1,    17.260,     3.710,     0.000,     0.000,     0.000,     0.000,   1,1, 0
  135,'1 ',1,   1,   1,     5.200,     1.570,     0.000,     0.000,     0.000,     0.000,   1,1, 0
  136,'1 ',1,   1,   1,    14.530,     3.560,     0.000,     0.000,     0.000,     0.000,   1,1, 0
  137,'1 ',1,   1,   1,    21.610,     5.630,     0.000,     0.000,     0.000,     0.000,   1,1, 0
  138,'1 ',1,   1,   1,    10.880,     2.650,     0.000,     0.000,     0.000,     0.000,   1,1, 0
  139,'1 ',1,   1,   1,     6.220,     2.130,     0.000,     0.000,     0.000,     0.000,   1,1, 0
  140,'1 ',1,   1,   1,     3.520,     1.370,     0.000,     0.000,     0.000,     0.000,   1,1, 0
  141,'1 ',1,   1,   1,    10.450,     2.660,     0.000,     0.000,     0.000,     0.000,   1,1, 0
  142,'1 ',1,   1,   1,     5.410,     1.510,     0.000,     0.000,     0.000,     0.000,   1,1, 0
  143,'1 ',1,   1,   1,    50.000,     7.980,     0.000,     0.000,     0.000,     0.000,   1,1, 0
  144,'1 ',1,   1,   1,    30.280,     6.700,     0.000,     0.000,     0.000,     0.000,   1,1, 0
  145,'1 ',1,   1,   1,    15.770,     3.650,     0.000,     0.000,     0.000,     0.000,   1,1, 0
  146,'1 ',1,   1,   1,     6.140,     1.790,     0.000,     0.000,     0.000,     0.000,   1,1, 0
  147,'1 ',1,   1,   1,     7.090,     2.080,     0.000,     0.000,     0.000,     0.000,   1,1, 0
  148,'1 ',1,   1,   1,     2.030,     0.730,     0.000,     0.000,     0.000,     0.000,   1,1, 0
  149,'1 ',1,   1,   1,     6.050,     2.100,     0.000,     0.000,     0.000,     0.000,   1,1, 0
  150,'1 ',1,   1,   1,     4.850,     1.490,     0.000,     0.000,     0.000,     0.000,   1,1, 0
  151,'1 ',1,   1,   1,    20.890,     4.000,     0.000,     0.000,     0.000,     0.000,   1,1, 0
  152,'1 ',1,   1,   1,     7.670,     2.460,     0.000,     0.000,     0.000,     0.000,   1,1, 0
  153,'1 ',1,   1,   1,    20.080,     5.460,     0.000,     0.000,     0.000,     0.000,   1,1, 0
  154,'1 ',1,   1,   1,     5.720,     1.630,     0.000,     0.000,     0.000,     0.000,   1,1, 0
  155,'1 ',1,   1,   1,    13.870,     3.340,     0.000,     0.000,     0.000,     0.000,   1,1, 0
  156,'1 ',1,   1,   1,     5.070,     1.700,     0.000,     0.000,     0.000,     0.000,   1,1, 0
  157,'1 ',1,   1,   1,    63.320,    13.000,     0.000,     0.000,     0.000,     0.000,   1,1, 0
  158,'1 ',1,   1,   1,     4.320,     1.360,     0.000,     0.000,     0.000,     0.000,   1,1, 0
  159,'1 ',1,   1,   1,    18.720,     5.400,     0.000,     0.000,     0.000,     0.000,   1,1, 0
  160,'1 ',1,   1,   1,     8.130,     2.080,     0.000,     0.000,     0.000,     0.000,   1,1, 0
  161,'1 ',1,   1,   1,     2.930,     0.960,     0.000,     0.000,     0.000,     0.000,   1,1, 0
  162,'1 ',1,   1,   1,     3.500,     1.250,     0.000,     0.000,     0.000,     0.000,   1,1, 0
  163,'1 ',1,   1,   1,     6.500,     1.810,     0.000,     0.000,     0.000,     0.000,   1,1, 0
  164,'1 ',1,   1,   1,    13.370,     4.180,     0.000,     0.000,     0.000,     0.000,   1,1, 0
  165,'1 ',1,   1,   1,    27.160,     3.160,     0.000,     0.000,     0.000,     0.000,   1,1, 0
  166,'1 ',1,   1,   1,    21.940,     4.440,     0.000,     0.000,     0.000,     0.000,   1,1, 0
  167,'1 ',1,   1,   1,    10.960,     2.180,     0.000,     0.000,     0.000,     0.000,   1,1, 0
  168,'1 ',1,   1,   1,    11.200,     3.620,     0.000,     0.000,     0.000,     0.000,   1,1, 0
  169,'1 ',1,   1,   1,     6.440,     1.550,     0.000,     0.000,     0.000,     0.000,   1,1, 0
  170,'1 ',1,   1,   1,     3.920,     1.410,     0.000,     0.000,     0.000,     0.000,   1,1, 0
  171,'1 ',1,   1,   1,     3.170,     1.010,     0.000,     0.000,     0.000,     0.000,   1,1, 0
  172,'1 ',1,   1,   1,    37.100,     8.340,     0.000,     0.000,     0.000,     0.000,   1,1, 0
  173,'1 ',1,   1,   1,     4.010,     1.340,     0.000,     0.000,     0.000,     0.000,   1,1, 0
  174,'1 ',1,   1,   1,     2.480,     1.010,     0.000,     0.000,     0.000,     0.000,   1,1, 0
  175,'1 ',1,   1,   1,    18.040,     5.280,     0.000,     0.000,     0.000,     0.000,   1,1, 0
  176,'1 ',1,   1,   1,     6.300,     1.800,     0.000,     0.000,     0.000,     0.000,   1,1, 0
  177,'1 ',1,   1,   1,     3.950,     1.330,     0.000,     0.000,     0.000,     0.000,   1,1, 0
  178,'1 ',1,   1,   1,     1.710,     0.580,     0.000,     0.000,     0.000,     0.000,   1,1, 0
  179,'1 ',1,   1,   1,    11.620,     3.350,     0.000,     0.000,     0.000,     0.000,   1,1, 0
  180,'1 ',1,   1,   1,    34.340,     7.930,     0.000,     0.000,     0.000,     0.000,   1,1, 0
  181,'1 ',1,   1,   1,    12.640,     3.960,     0.000,     0.000,     0.000,     0.000,   1,1, 0
  182,'1 ',1,   1,   1,     7.630,     1.940,     0.000,     0.000,     0.000,     0.000,   1,1, 0
  183,'1 ',1,   1,   1,     3.560,     1.070,     0.000,     0.000,     0.000,     0.000,   1,1, 0
  184,'1 ',1,   1,   1,     1.670,     0.530,     0.000,     0.000,     0.000,     0.000,   1,1, 0
  185,'1 ',1,   1,   1,    14.510,     2.900,     0.000,     0.000,     0.000,     0.000,   1,1, 0
  186,'1 ',1,   1,   1,     5.040,     1.720,     0.000,     0.000,     0.000,     0.000,   1,1, 0
  187,'1 ',1,   1,   1,     5.360,     1.680,     0.000,     0.000,     0.000,     0.000,   1,1, 0
  188,'1 ',1,   1,   1,     2.870,     0.710,     0.000,     0.000,     0.000,     0.000,   1,1, 0
  189,'1 ',1,   1,   1,    13.370,     2.350,     0.000,     0.000,     0.000,     0.000,   1,1, 0
  190,'1 ',1,   1,   1,    20.640,     4.280,     0.000,     0.000,     0.000,     0.000,   1,1, 0
  191,'1 ',1,   1,   1,    56.230,    14.250,     0.000,     0.000,     0.000,     0.000,   1,1, 0
  192,'1 ',1,   1,   1,     2.400,     0.740,     0.000,     0.000,     0.000,     0.000,   1,1, 0
  193,'1 ',1,   1,   1,     5.460,     1.890,     0.000,     0.000,     0.000,     0.000,   1,1, 0
  194,'1 ',1,   1,   1,    10.670,     3.120,     0.000,     0.000,     0.000,     0.000,   1,1, 0
  195,'1 ',1,   1,   1,    10.810,     2.770,     0.000,     0.000,     0.000,     0.000,   1,1, 0
  196,'1 ',1,   1,   1,     4.600,     1.550,     0.000,     0.000,     0.000,     0.000,   1,1, 0
  197,'1 ',1,   1,   1,     6.490,     1.950,     0.000,     0.000,     0.000,     0.000,   1,1, 0
  198,'1 ',1,   1,   1,     3.460,     1.250,     0.000,     0.000,     0.000,     0.000,   1,1, 0
  199,'1 ',1,   1,   1,    11.480,     2.650,     0.000,     0.000,     0.000,     0.000,   1,1, 0
  200,'1 ',1,   1,   1,    10.010,     3.080,     0.000,     0.000,     0.000,     0.000,   1,1, 0
...
0 / END OF LOAD DATA, BEGIN FIXED SHUNT DATA
   109,'1 ', 1,     0.000,    36.000
   172,'1 ', 1,     0.000,    50.000
0 / END OF FIXED SHUNT DATA, BEGIN GENERATOR DATA
    1,'1 ',   344.734,    -3.125,   220.000,  -215.500,1.00000,    0,   100.000,   0.00000,   1.00000,   0.00000,   0.00000,1.00000,1,  100.0,   444.720,   195.000,   1,1.0000,   0,1.0000,   0,1.0000,   0,1.0000,0,1.0000
    1,'2 ',   344.734,    -3.125,   220.000,  -215.500,1.00000,    0,   100.000,   0.00000,   1.00000,   0.00000,   0.00000,1.00000,1,  100.0,   444.720,   195.000,   1,1.0000,   0,1.0000,   0,1.0000,   0,1.0000,0,1.0000
    1,'3 ',   344.734,    -3.125,   220.000,  -215.500,1.00000,    0,   100.000,   0.00000,   1.00000,   0.00000,   0.00000,1.00000,1,  100.0,   444.720,   195.000,   1,1.0000,   0,1.0000,   0,1.0000,   0,1.0000,0,1.0000
    1,'4 ',   344.734,    -3.125,   220.000,  -215.500,1.00000,    0,   100.000,   0.00000,   1.00000,   0.00000,   0.00000,1.00000,1,  100.0,   444.720,   195.000,   1,1.0000,   0,1.0000,   0,1.0000,   0,1.0000,0,1.0000
    2,'1 ',   135.000,    69.191,   181.330,  -174.330,1.00000,    0,   100.000,   0.00000,   1.00000,   0.00000,   0.00000,1.00000,1,  100.0,   360.100,   135.000,   1,1.0000,   0,1.0000,   0,1.0000,   0,1.0000,0,1.0000
    2,'2 ',   135.000,    69.191,   181.330,  -174.330,1.00000,    0,   100.000,   0.00000,   1.00000,   0.00000,   0.00000,1.00000,1,  100.0,   360.100,   135.000,   1,1.0000,   0,1.0000,   0,1.0000,   0,1.0000,0,1.0000
    2,'3 ',   135.000,    69.191,   181.330,  -174.330,1.00000,    0,   100.000,   0.00000,   1.00000,   0.00000,   0.00000,1.00000,1,  100.0,   360.100,   135.000,   1,1.0000,   0,1.0000,   0,1.0000,   0,1.0000,0,1.0000
    3,'1 ',   489.760,  -102.623,   393.000,  -393.000,1.00000,    0,   100.000,   0.00000,   1.00000,   0.00000,   0.00000,1.00000,1,  100.0,   811.900,   275.000,   1,1.0000,   0,1.0000,   0,1.0000,   0,1.0000,0,1.0000
    4,'1 ',   220.000,   -16.033,   352.000,  -352.000,1.00000,    0,   100.000,   0.00000,   1.00000,   0.00000,   0.00000,1.00000,1,  100.0,   725.900,   220.000,   1,1.0000,   0,1.0000,   0,1.0000,   0,1.0000,0,1.0000
    5,'1 ',   250.000,    36.618,   337.000,  -337.000,1.00000,    0,   100.000,   0.00000,   1.00000,   0.00000,   0.00000,1.00000,1,  100.0,   695.900,   250.000,   1,1.0000,   0,1.0000,   0,1.0000,   0,1.0000,0,1.0000
    6,'1 ',   677.000,   -69.472,   223.000,  -223.000,1.00000,    0,   100.000,   0.00000,   1.00000,   0.00000,   0.00000,1.00000,1,  100.0,   679.500,    60.000,   1,1.0000,   0,1.0000,   0,1.0000,   0,1.0000,0,1.0000
    7,'1 ',   253.000,    -1.560,   374.000,  -292.000,1.00000,    0,   100.000,   0.00000,   1.00000,   0.00000,   0.00000,1.00000,1,  100.0,   602.800,   253.000,   1,1.0000,   0,1.0000,   0,1.0000,   0,1.0000,0,1.0000
    8,'1 ',   576.000,   -12.942,   357.000,  -279.000,1.00000,    0,   100.000,   0.00000,   1.00000,   0.00000,   0.00000,1.00000,1,  100.0,   576.300,   295.000,   1,1.0000,   0,1.0000,   0,1.0000,   0,1.0000,0,1.0000
    9,'1 ',   107.830,    -7.934,    54.670,   -52.330,1.00000,    0,   100.000,   0.00000,   1.00000,   0.00000,   0.00000,1.00000,1,  100.0,   107.830,    38.000,   1,1.0000,   0,1.0000,   0,1.0000,   0,1.0000,0,1.0000
    9,'2 ',   107.830,    -7.934,    54.670,   -52.330,1.00000,    0,   100.000,   0.00000,   1.00000,   0.00000,   0.00000,1.00000,1,  100.0,   107.830,    38.000,   1,1.0000,   0,1.0000,   0,1.0000,   0,1.0000,0,1.0000
    9,'3 ',   107.830,    -7.934,    54.670,   -52.330,1.00000,    0,   100.000,   0.00000,   1.00000,   0.00000,   0.00000,1.00000,1,  100.0,   107.830,    38.000,   1,1.0000,   0,1.0000,   0,1.0000,   0,1.0000,0,1.0000
   10,'1 ',     9.000,     5.842,   145.000,  -145.000,1.00000,    0,   100.000,   0.00000,   1.00000,   0.00000,   0.00000,1.00000,1,  100.0,     9.000,     0.000,   1,1.0000,   0,1.0000,   0,1.0000,   0,1.0000,1,1.0000
   11,'1 ',    20.250,     5.182,    45.500,   -35.500,1.00000,    0,   100.000,   0.00000,   1.00000,   0.00000,   0.00000,1.00000,1,  100.0,    73.370,    20.250,   1,1.0000,   0,1.0000,   0,1.0000,   0,1.0000,0,1.0000
   11,'2 ',    20.250,     5.182,    45.500,   -35.500,1.00000,    0,   100.000,   0.00000,   1.00000,   0.00000,   0.00000,1.00000,1,  100.0,    73.370,    20.250,   1,1.0000,   0,1.0000,   0,1.0000,   0,1.0000,0,1.0000
   11,'3 ',    20.250,     5.182,    45.500,   -35.500,1.00000,    0,   100.000,   0.00000,   1.00000,   0.00000,   0.00000,1.00000,1,  100.0,    73.370,    20.250,   1,1.0000,   0,1.0000,   0,1.0000,   0,1.0000,0,1.0000
   11,'4 ',    20.250,     5.182,    45.500,   -35.500,1.00000,    0,   100.000,   0.00000,   1.00000,   0.00000,   0.00000,1.00000,1,  100.0,    73.370,    20.250,   1,1.0000,   0,1.0000,   0,1.0000,   0,1.0000,0,1.0000
   12,'1 ',     6.000,     3.782,    42.670,   -42.670,1.00000,    0,   100.000,   0.00000,   1.00000,   0.00000,   0.00000,1.00000,1,  100.0,    88.030,     6.000,   1,1.0000,   0,1.0000,   0,1.0000,   0,1.0000,0,1.0000
   12,'2 ',     6.000,     3.782,    42.670,   -42.670,1.00000,    0,   100.000,   0.00000,   1.00000,   0.00000,   0.00000,1.00000,1,  100.0,    88.030,     6.000,   1,1.0000,   0,1.0000,   0,1.0000,   0,1.0000,0,1.0000
   12,'3 ',     6.000,     3.782,    42.670,   -42.670,1.00000,    0,   100.000,   0.00000,   1.00000,   0.00000,   0.00000,1.00000,1,  100.0,    88.030,     6.000,   1,1.0000,   0,1.0000,   0,1.0000,   0,1.0000,0,1.0000
   13,'1 ',     2.670,    21.115,    41.330,   -41.330,1.00000,    0,   100.000,   0.00000,   1.00000,   0.00000,   0.00000,1.00000,1,  100.0,     2.670,     0.000,   1,1.0000,   0,1.0000,   0,1.0000,   0,1.0000,1,1.0000
   13,'2 ',     2.670,    21.115,    41.330,   -41.330,1.00000,    0,   100.000,   0.00000,   1.00000,   0.00000,   0.00000,1.00000,1,  100.0,     2.670,     0.000,   1,1.0000,   0,1.0000,   0,1.0000,   0,1.0000,1,1.0000
   13,'3 ',     2.670,    21.115,    41.330,   -41.330,1.00000,    0,   100.000,   0.00000,   1.00000,   0.00000,   0.00000,1.00000,1,  100.0,     2.670,     0.000,   1,1.0000,   0,1.0000,   0,1.0000,   0,1.0000,1,1.0000
   14,'1 ',    67.220,    44.525,   179.000,  -124.000,1.00000,    0,   100.000,   0.00000,   1.00000,   0.00000,   0.00000,1.00000,1,  100.0,   256.100,    20.000,   1,1.0000,   0,1.0000,   0,1.0000,   0,1.0000,0,1.0000
   15,'1 ',    17.750,    16.027,    33.500,   -28.500,1.00000,    0,   100.000,   0.00000,   1.00000,   0.00000,   0.00000,1.00000,1,  100.0,    59.100,    17.750,   1,1.0000,   0,1.0000,   0,1.0000,   0,1.0000,0,1.0000
   15,'2 ',    17.750,    16.027,    33.500,   -28.500,1.00000,    0,   100.000,   0.00000,   1.00000,   0.00000,   0.00000,1.00000,1,  100.0,    59.100,    17.750,   1,1.0000,   0,1.0000,   0,1.0000,   0,1.0000,0,1.0000
   16,'1 ',     2.670,    31.663,    38.000,   -38.000,1.00000,    0,   100.000,   0.00000,   1.00000,   0.00000,   0.00000,1.00000,1,  100.0,     2.670,     0.000,   1,1.0000,   0,1.0000,   0,1.0000,   0,1.0000,1,1.0000
   16,'2 ',     2.670,    31.663,    38.000,   -38.000,1.00000,    0,   100.000,   0.00000,   1.00000,   0.00000,   0.00000,1.00000,1,  100.0,     2.670,     0.000,   1,1.0000,   0,1.0000,   0,1.0000,   0,1.0000,1,1.0000
   16,'3 ',     2.670,    31.663,    38.000,   -38.000,1.00000,    0,   100.000,   0.00000,   1.00000,   0.00000,   0.00000,1.00000,1,  100.0,     2.670,     0.000,   1,1.0000,   0,1.0000,   0,1.0000,   0,1.0000,1,1.0000
   17,'1 ',   114.400,    -3.554,   135.000,  -106.000,1.00000,    0,   100.000,   0.00000,   1.00000,   0.00000,   0.00000,1.00000,1,  100.0,   218.500,    45.000,   1,1.0000,   0,1.0000,   0,1.0000,   0,1.0000,0,1.0000
   18,'1 ',   106.400,    26.643,   103.000,  -103.000,1.00000,    0,   100.000,   0.00000,   1.00000,   0.00000,   0.00000,1.00000,1,  100.0,   212.000,    80.000,   1,1.0000,   0,1.0000,   0,1.0000,   0,1.0000,0,1.0000
   19,'1 ',   200.000,    97.000,    97.000,   -97.000,1.00000,    0,   100.000,   0.00000,   1.00000,   0.00000,   0.00000,1.00000,1,  100.0,   200.000,     0.000,   1,1.0000,   0,1.0000,   0,1.0000,   0,1.0000,1,1.0000
   20,'1 ',    46.000,   -71.171,    97.000,   -97.000,1.00000,    0,   100.000,   0.00000,   1.00000,   0.00000,   0.00000,1.00000,1,  100.0,    46.000,     0.000,   1,1.0000,   0,1.0000,   0,1.0000,   0,1.0000,1,1.0000
   21,'1 ',    30.000,    -3.162,    30.670,   -30.670,1.00000,    0,   100.000,   0.00000,   1.00000,   0.00000,   0.00000,1.00000,1,  100.0,    63.000,    30.000,   1,1.0000,   0,1.0000,   0,1.0000,   0,1.0000,0,1.0000
   21,'2 ',    30.000,    -3.162,    30.670,   -30.670,1.00000,    0,   100.000,   0.00000,   1.00000,   0.00000,   0.00000,1.00000,1,  100.0,    63.000,    30.000,   1,1.0000,   0,1.0000,   0,1.0000,   0,1.0000,0,1.0000
   21,'3 ',    30.000,    -3.162,    30.670,   -30.670,1.00000,    0,   100.000,   0.00000,   1.00000,   0.00000,   0.00000,1.00000,1,  100.0,    63.000,    30.000,   1,1.0000,   0,1.0000,   0,1.0000,   0,1.0000,0,1.0000
   22,'1 ',    23.000,     2.803,    44.500,   -44.500,1.00000,    0,   100.000,   0.00000,   1.00000,   0.00000,   0.00000,1.00000,1,  100.0,    23.000,     0.000,   1,1.0000,   0,1.0000,   0,1.0000,   0,1.0000,1,1.0000
   22,'2 ',    13.000,     2.803,    44.500,   -44.500,1.00000,    0,   100.000,   0.00000,   1.00000,   0.00000,   0.00000,1.00000,1,  100.0,    13.000,     0.000,   1,1.0000,   0,1.0000,   0,1.0000,   0,1.0000,1,1.0000
   23,'1 ',    30.000,    17.788,    37.330,   -29.330,1.00000,    0,   100.000,   0.00000,   1.00000,   0.00000,   0.00000,1.00000,1,  100.0,    60.500,    30.000,   1,1.0000,   0,1.0000,   0,1.0000,   0,1.0000,0,1.0000
   23,'2 ',    30.000,    17.788,    37.330,   -29.330,1.00000,    0,   100.000,   0.00000,   1.00000,   0.00000,   0.00000,1.00000,1,  100.0,    60.500,    30.000,   1,1.0000,   0,1.0000,   0,1.0000,   0,1.0000,0,1.0000
   23,'3 ',    30.000,    17.788,    37.330,   -29.330,1.00000,    0,   100.000,   0.00000,   1.00000,   0.00000,   0.00000,1.00000,1,  100.0,    60.500,    30.000,   1,1.0000,   0,1.0000,   0,1.0000,   0,1.0000,0,1.0000
   24,'1 ',    10.000,    12.113,    56.000,   -43.500,1.00000,    0,   100.000,   0.00000,   1.00000,   0.00000,   0.00000,1.00000,1,  100.0,    90.000,    10.000,   1,1.0000,   0,1.0000,   0,1.0000,   0,1.0000,0,1.0000
   24,'2 ',    10.000,    12.113,    56.000,   -43.500,1.00000,    0,   100.000,   0.00000,   1.00000,   0.00000,   0.00000,1.00000,1,  100.0,    90.000,    10.000,   1,1.0000,   0,1.0000,   0,1.0000,   0,1.0000,0,1.0000
   25,'1 ',     6.000,    22.854,    29.000,   -29.000,1.00000,    0,   100.000,   0.00000,   1.00000,   0.00000,   0.00000,1.00000,1,  100.0,    59.930,     6.000,   1,1.0000,   0,1.0000,   0,1.0000,   0,1.0000,0,1.0000
   25,'2 ',     6.000,    22.854,    29.000,   -29.000,1.00000,    0,   100.000,   0.00000,   1.00000,   0.00000,   0.00000,1.00000,1,  100.0,    59.930,     6.000,   1,1.0000,   0,1.0000,   0,1.0000,   0,1.0000,0,1.0000
   25,'3 ',     6.000,    22.854,    29.000,   -29.000,1.00000,    0,   100.000,   0.00000,   1.00000,   0.00000,   0.00000,1.00000,1,  100.0,    59.930,     6.000,   1,1.0000,   0,1.0000,   0,1.0000,   0,1.0000,0,1.0000
   26,'1 ',    48.700,    -1.604,    85.000,   -85.000,1.00000,    0,   100.000,   0.00000,   1.00000,   0.00000,   0.00000,1.00000,1,  100.0,    48.700,     0.000,   1,1.0000,   0,1.0000,   0,1.0000,   0,1.0000,1,1.0000
   27,'1 ',   250.000,   -14.511,    38.500,   -38.500,1.00000,    0,   100.000,   0.00000,   1.00000,   0.00000,   0.00000,1.00000,1,  100.0,   250.000,     0.000,   1,1.0000,   0,1.0000,   0,1.0000,   0,1.0000,1,1.0000
   27,'2 ',   250.000,   -14.511,    38.500,   -38.500,1.00000,    0,   100.000,   0.00000,   1.00000,   0.00000,   0.00000,1.00000,1,  100.0,   250.000,     0.000,   1,1.0000,   0,1.0000,   0,1.0000,   0,1.0000,1,1.0000
   28,'1 ',     6.000,    33.185,    38.000,   -38.000,1.00000,    0,   100.000,   0.00000,   1.00000,   0.00000,   0.00000,1.00000,1,  100.0,    78.800,     6.000,   1,1.0000,   0,1.0000,   0,1.0000,   0,1.0000,0,1.0000
   28,'2 ',     6.000,    33.185,    38.000,   -38.000,1.00000,    0,   100.000,   0.00000,   1.00000,   0.00000,   0.00000,1.00000,1,  100.0,    78.800,     6.000,   1,1.0000,   0,1.0000,   0,1.0000,   0,1.0000,0,1.0000
   29,'1 ',     5.000,     8.564,    74.000,   -74.000,1.00000,    0,   100.000,   0.00000,   1.00000,   0.00000,   0.00000,1.00000,1,  100.0,     5.000,     0.000,   1,1.0000,   0,1.0000,   0,1.0000,   0,1.0000,1,1.0000
   30,'1 ',    53.470,    -5.178,    73.000,   -73.000,1.00000,    0,   100.000,   0.00000,   1.00000,   0.00000,   0.00000,1.00000,1,  100.0,    53.470,     0.000,   1,1.0000,   0,1.0000,   0,1.0000,   0,1.0000,1,1.0000
   31,'1 ',   150.000,   -73.000,    73.000,   -73.000,1.00000,    0,   100.000,   0.00000,   1.00000,   0.00000,   0.00000,1.00000,1,  100.0,   150.000,     0.000,   1,1.0000,   0,1.0000,   0,1.0000,   0,1.0000,1,1.0000
   32,'1 ',     8.000,     6.234,    73.000,   -73.000,1.00000,    0,   100.000,   0.00000,   1.00000,   0.00000,   0.00000,1.00000,1,  100.0,     8.000,     0.000,   1,1.0000,   0,1.0000,   0,1.0000,   0,1.0000,1,1.0000
   33,'1 ',     8.000,     5.432,    73.000,   -73.000,1.00000,    0,   100.000,   0.00000,   1.00000,   0.00000,   0.00000,1.00000,1,  100.0,     8.000,     0.000,   1,1.0000,   0,1.0000,   0,1.0000,   0,1.0000,1,1.0000
   34,'1 ',    30.000,    26.696,    84.000,   -66.000,1.00000,    0,   100.000,   0.00000,   1.00000,   0.00000,   0.00000,1.00000,1,  100.0,   136.000,    30.000,   1,1.0000,   0,1.0000,   0,1.0000,   0,1.0000,0,1.0000
   35,'1 ',    16.000,     5.950,     9.880,    -7.750,1.00000,    0,   100.000,   0.00000,   1.00000,   0.00000,   0.00000,1.00000,1,  100.0,    16.000,     2.500,   1,1.0000,   0,1.0000,   0,1.0000,   0,1.0000,0,1.0000
   35,'2 ',    16.000,     5.950,     9.880,    -7.750,1.00000,    0,   100.000,   0.00000,   1.00000,   0.00000,   0.00000,1.00000,1,  100.0,    16.000,     2.500,   1,1.0000,   0,1.0000,   0,1.0000,   0,1.0000,0,1.0000
   35,'3 ',    16.000,     5.950,     9.880,    -7.750,1.00000,    0,   100.000,   0.00000,   1.00000,   0.00000,   0.00000,1.00000,1,  100.0,    16.000,     2.500,   1,1.0000,   0,1.0000,   0,1.0000,   0,1.0000,0,1.0000
   35,'4 ',    16.000,     5.950,     9.880,    -7.750,1.00000,    0,   100.000,   0.00000,   1.00000,   0.00000,   0.00000,1.00000,1,  100.0,    16.000,     2.500,   1,1.0000,   0,1.0000,   0,1.0000,   0,1.0000,0,1.0000
   35,'5 ',    16.000,     5.950,     9.880,    -7.750,1.00000,    0,   100.000,   0.00000,   1.00000,   0.00000,   0.00000,1.00000,1,  100.0,    16.000,     2.500,   1,1.0000,   0,1.0000,   0,1.0000,   0,1.0000,0,1.0000
   35,'6 ',    16.000,     5.950,     9.880,    -7.750,1.00000,    0,   100.000,   0.00000,   1.00000,   0.00000,   0.00000,1.00000,1,  100.0,    16.000,     2.500,   1,1.0000,   0,1.0000,   0,1.0000,   0,1.0000,0,1.0000
   35,'7 ',    16.000,     5.950,     9.880,    -7.750,1.00000,    0,   100.000,   0.00000,   1.00000,   0.00000,   0.00000,1.00000,1,  100.0,    16.000,     2.500,   1,1.0000,   0,1.0000,   0,1.0000,   0,1.0000,0,1.0000
   35,'8 ',    16.000,     5.950,     9.880,    -7.750,1.00000,    0,   100.000,   0.00000,   1.00000,   0.00000,   0.00000,1.00000,1,  100.0,    16.000,     2.500,   1,1.0000,   0,1.0000,   0,1.0000,   0,1.0000,0,1.0000
   36,'1 ',    55.000,    21.602,    94.000,   -60.000,1.00000,    0,   100.000,   0.00000,   1.00000,   0.00000,   0.00000,1.00000,1,  100.0,    57.000,    55.000,   1,1.0000,   0,1.0000,   0,1.0000,   0,1.0000,0,1.0000
   37,'1 ',    36.000,     3.819,    40.000,   -40.000,1.00000,    0,   100.000,   0.00000,   1.00000,   0.00000,   0.00000,1.00000,1,  100.0,   119.000,    36.000,   1,1.0000,   0,1.0000,   0,1.0000,   0,1.0000,0,1.0000
   38,'1 ',    29.260,    -3.087,    18.330,   -18.330,1.00000,    0,   100.000,   0.00000,   1.00000,   0.00000,   0.00000,1.00000,1,  100.0,    29.260,     0.000,   1,1.0000,   0,1.0000,   0,1.0000,   0,1.0000,1,1.0000
   38,'2 ',    29.260,    -3.087,    18.330,   -18.330,1.00000,    0,   100.000,   0.00000,   1.00000,   0.00000,   0.00000,1.00000,1,  100.0,    29.260,     0.000,   1,1.0000,   0,1.0000,   0,1.0000,   0,1.0000,1,1.0000
   38,'3 ',    29.260,    -3.087,    18.330,   -18.330,1.00000,    0,   100.000,   0.00000,   1.00000,   0.00000,   0.00000,1.00000,1,  100.0,    29.260,     0.000,   1,1.0000,   0,1.0000,   0,1.0000,   0,1.0000,1,1.0000
   39,'1 ',    22.500,    29.000,    29.000,   -26.500,1.00000,    0,   100.000,   0.00000,   1.00000,   0.00000,   0.00000,1.00000,1,  100.0,    54.000,    22.500,   1,1.0000,   0,1.0000,   0,1.0000,   0,1.0000,0,1.0000
   39,'2 ',    22.500,    29.000,    29.000,   -26.500,1.00000,    0,   100.000,   0.00000,   1.00000,   0.00000,   0.00000,1.00000,1,  100.0,    54.000,    22.500,   1,1.0000,   0,1.0000,   0,1.0000,   0,1.0000,0,1.0000
   40,'1 ',    14.230,    -1.992,    48.000,   -48.000,1.00000,    0,   100.000,   0.00000,   1.00000,   0.00000,   0.00000,1.00000,1,  100.0,    14.230,     0.000,   1,1.0000,   0,1.0000,   0,1.0000,   0,1.0000,1,1.0000
   41,'1 ',    61.190,    -3.696,    48.000,   -48.000,1.00000,    0,   100.000,   0.00000,   1.00000,   0.00000,   0.00000,1.00000,1,  100.0,    61.190,     0.000,   1,1.0000,   0,1.0000,   0,1.0000,   0,1.0000,1,1.0000
   42,'1 ',     5.990,     2.004,    48.000,   -48.000,1.00000,    0,   100.000,   0.00000,   1.00000,   0.00000,   0.00000,1.00000,1,  100.0,     5.990,     0.000,   1,1.0000,   0,1.0000,   0,1.0000,   0,1.0000,1,1.0000
   43,'1 ',     6.080,    -1.078,    48.000,   -48.000,1.00000,    0,   100.000,   0.00000,   1.00000,   0.00000,   0.00000,1.00000,1,  100.0,     6.080,     0.000,   1,1.0000,   0,1.0000,   0,1.0000,   0,1.0000,1,1.0000
   44,'1 ',    65.000,    47.000,    47.000,   -47.000,1.00000,    0,   100.000,   0.00000,   1.00000,   0.00000,   0.00000,1.00000,1,  100.0,    65.000,     0.000,   1,1.0000,   0,1.0000,   0,1.0000,   0,1.0000,1,1.0000
   45,'1 ',    13.000,     3.845,    28.000,   -22.000,1.00000,    0,   100.000,   0.00000,   1.00000,   0.00000,   0.00000,1.00000,1,  100.0,    45.100,    13.000,   1,1.0000,   0,1.0000,   0,1.0000,   0,1.0000,0,1.0000
   45,'2 ',    13.000,     3.845,    28.000,   -22.000,1.00000,    0,   100.000,   0.00000,   1.00000,   0.00000,   0.00000,1.00000,1,  100.0,    45.100,    13.000,   1,1.0000,   0,1.0000,   0,1.0000,   0,1.0000,0,1.0000
...